<?xml version="1.0" encoding="UTF-8"?>

<!-- generated on 2025-02-16 11:58:46 by Eclipse SUMO polyconvert Version 1.22.0
<polyconvertConfiguration xmlns:xsi="http://www.w3.org/2001/XMLSchema-instance" xsi:noNamespaceSchemaLocation="http://sumo.dlr.de/xsd/polyconvertConfiguration.xsd">

    <input>
        <net-file value="map.net.xml"/>
        <osm-files value="map.osm"/>
        <type-file value="osmPolyconvert.typ.xml"/>
    </input>

    <output>
        <output-file value="map.poly.xml"/>
    </output>

</polyconvertConfiguration>
-->

<additional xmlns:xsi="http://www.w3.org/2001/XMLSchema-instance" xsi:noNamespaceSchemaLocation="http://sumo.dlr.de/xsd/additional_file.xsd">
    <location netOffset="-565723.36,-1154551.76" convBoundary="-3768.12,-4172.73,10098.32,8077.65" origBoundary="105.566184,10.405951,105.692704,10.516845" projParameter="+proj=utm +zone=48 +ellps=WGS84 +datum=WGS84 +units=m +no_defs"/>

    <poly id="1076624528" type="water" color="181,209,209" fill="0" layer="-4.00" shape="5708.347631,650.590355 5758.793734,665.876404"/>
    <poly id="1109021316" type="water" color="181,209,209" fill="0" layer="-4.00" shape="7638.227263,314.671390 7468.843510,474.412765 7336.430286,599.280511 7158.286547,715.571239 6940.286133,799.115433 6754.667009,838.322299 6727.062875,844.158025 6474.586398,850.054105 6172.257858,829.000956 5930.927093,838.418325 5655.442632,898.520195 5483.826460,984.491152 5391.429293,1091.634847 5285.468299,1227.323138 5168.946414,1357.748846 5021.280402,1507.948033 4887.772573,1617.916845 4719.111998,1700.989246 4552.165426,1802.719683 4525.670814,1839.420454"/>
    <poly id="1109021317" type="water" color="181,209,209" fill="0" layer="-4.00" shape="4525.670814,1839.420454 4493.287264,1881.936498 4428.337007,2062.625530 4390.444066,2220.624606 4346.642408,2394.357406 4290.012485,2531.320611 4159.317876,2708.957609 4043.373721,2850.456236 3957.393832,2981.898229 3940.912203,2998.075032 3926.174463,3012.386670 3879.172048,3038.320830 3821.003514,3055.010705 3775.027696,3054.918054 3713.057128,3041.236953 3651.865206,3021.288012 3639.754521,3013.656202 3616.145201,2998.791892 3406.675255,2824.185141 3318.000688,2733.823898 3274.958490,2667.559611 3254.662592,2642.883279 3245.290405,2639.392542 3226.049040,2640.139166 3133.452844,2682.757258 3014.865075,2769.055576 2781.606962,2964.892578 2637.862014,3067.108937 2579.277277,3111.996237 2519.074867,3172.526553 2445.926791,3271.389256 2434.777768,3281.009216 2419.514778,3284.605863 2410.138329,3283.326804 2389.814481,3272.704798 2345.237687,3223.820807 2330.041656,3193.471629 2322.471048,3164.398037 2322.856954,3129.656675 2346.725434,3035.572735"/>
    <poly id="1120936655" type="building" color="255,230,230" fill="1" layer="-1.00" shape="4504.664343,2180.431038 4501.838753,2154.484714 4568.745298,2147.311947 4571.559918,2173.247199 4504.664343,2180.431038"/>
    <poly id="1120936656" type="building" color="255,230,230" fill="1" layer="-1.00" shape="4471.187952,2238.469405 4470.091103,2228.891498 4483.369655,2227.381525 4484.466500,2236.959433 4471.187952,2238.469405"/>
    <poly id="1120936657" type="building" color="255,230,230" fill="1" layer="-1.00" shape="4462.165705,2229.726802 4444.078926,2222.270546 4448.950982,2210.603873 4467.026821,2218.060109 4462.165705,2229.726802"/>
    <poly id="1120936658" type="building" color="255,230,230" fill="1" layer="-1.00" shape="4511.996652,2212.910375 4508.908430,2186.952458 4517.939665,2185.898267 4521.027880,2211.856185 4511.996652,2212.910375"/>
    <poly id="1120936659" type="building" color="255,230,230" fill="1" layer="-1.00" shape="4527.694588,2130.388030 4515.756117,2124.105273 4526.863239,2103.284739 4538.790771,2109.567477 4527.694588,2130.388030"/>
    <poly id="1120936660" type="building" color="255,230,230" fill="1" layer="-1.00" shape="4759.436399,2122.246638 4758.922069,2106.135002 4795.412973,2104.993201 4795.927308,2121.093781 4759.436399,2122.246638"/>
    <poly id="1120936661" type="building" color="255,230,230" fill="1" layer="-1.00" shape="4404.743295,2417.043474 4380.854052,2410.614849 4384.360391,2397.784372 4408.238699,2404.212976 4404.743295,2417.043474"/>
    <poly id="1120936829" type="building" color="255,230,230" fill="1" layer="-1.00" shape="4242.156925,2086.750879 4230.449233,2079.971111 4241.058070,2061.924883 4252.754801,2068.715689 4242.156925,2086.750879"/>
    <poly id="1120936830" type="building" color="255,230,230" fill="1" layer="-1.00" shape="4274.621021,2106.830497 4284.194696,2091.944587 4295.846398,2099.343472 4286.261775,2114.229357 4274.621021,2106.830497"/>
    <poly id="1120936831" type="building" color="255,230,230" fill="1" layer="-1.00" shape="4381.986465,2025.411831 4364.488155,2019.139958 4370.376336,2002.919705 4387.874653,2009.191580 4381.986465,2025.411831"/>
    <poly id="1146891852" type="water" color="181,209,209" fill="0" layer="-4.00" shape="3940.912203,2998.075032 3979.235393,3037.472406 3996.302164,3051.262247 4055.782085,3089.674144 4090.452676,3116.801655 4187.253794,3197.307330 4306.986507,3302.617305 4323.808846,3323.472488 4329.320953,3341.440849 4327.335276,3365.364960 4317.852530,3411.067918 4319.969840,3435.486887 4334.145610,3455.385773 4347.864164,3463.308606 4356.714631,3459.489683 4360.316679,3453.371220 4377.349246,3413.820455 4381.862636,3406.233217 4388.461057,3401.237642 4395.435976,3399.460528 4404.078277,3401.147763 4413.879074,3408.985254 4434.489014,3429.295334 4442.360531,3433.292002 4449.202050,3432.531906 4455.290523,3425.368061 4470.350308,3381.910069 4477.471461,3372.813289 4486.387383,3369.116162 4497.883216,3366.828575 4523.037797,3374.962739 4559.821052,3385.431609 4581.509842,3386.493093 4599.208553,3379.994268 4631.641792,3366.205525 4679.936387,3361.427773 4701.625171,3362.500390 4728.602169,3367.818797 4755.173654,3378.775659 4780.572499,3395.878047 4797.066877,3411.049320 4814.066944,3430.456612 4901.862449,3605.320791 4946.563399,3709.174851 5030.124720,3920.133154 5036.653510,3943.731959 5041.697214,3976.394774 5052.610178,3996.740655 5083.232588,4022.556199 5173.236830,4117.071793 5300.053480,4244.315983 5392.936860,4353.710366 5505.484212,4495.433293 5669.407240,4691.687623 5714.481391,4740.367301 5917.521091,4959.581926 5986.555799,5036.928444 6096.725823,5177.631419"/>
    <poly id="1147078433" type="water" color="181,209,209" fill="0" layer="-4.00" shape="5960.533025,3831.915391 5953.284930,3812.428233 5952.795122,3800.617908 5957.494778,3777.285500 5957.544389,3753.423727 5919.271606,3654.325140 5911.330814,3625.824776 5911.643283,3596.578598 5933.187363,3546.091036 5944.878815,3507.635576 5961.983841,3481.498259 5995.095313,3452.320274 6020.947270,3435.445163 6036.218598,3417.519713 6100.801722,3279.624585 6107.067871,3250.390803 6110.392395,3183.257175 6115.924768,3159.539510 6115.180526,3138.539953 6095.661165,3115.168191 6084.735318,3101.146775 6083.974851,3087.931597 6089.882581,3073.160149 6095.807685,3044.788133 6092.329018,3023.008868 6081.786607,3014.041487 6049.736980,2990.256673 6036.875540,2964.952703 6033.386315,2948.226657 6022.456362,2936.140304 5929.385793,2894.735974 5907.505552,2880.304870 5897.746555,2868.220992 5896.588804,2856.553035 5920.535892,2824.326209 5926.837906,2804.126373 5920.218582,2787.393846 5891.300746,2767.883859 5870.983355,2749.176816 5868.273124,2736.731624 5876.931716,2709.526282 5872.260870,2697.851039 5861.722339,2686.937643 5845.293065,2682.624356 5812.021949,2682.953439 5796.763695,2678.642602 5763.155805,2651.349668 5730.304434,2639.229078 5709.178466,2635.680152 5682.937686,2644.571277 5668.061316,2646.099592 5661.028540,2638.698708 5660.274031,2627.805618 5685.453214,2566.024780 5719.216107,2513.218210 5796.497076,2427.042143 5869.847101,2352.534684 5897.263232,2341.700022 5933.303456,2330.894339 5946.244368,2318.083570 5949.049059,2285.038842 5930.376799,2232.886587 5927.708051,2195.164281 5951.033069,2083.223421 5952.265470,2053.669569 5944.864923,2038.870474 5895.994342,2014.276954 5878.040006,1990.521617 5872.235448,1955.501884 5868.783100,1920.885096 5851.629594,1890.906128 5848.918797,1873.407720 5860.715368,1847.767969 5901.499659,1813.629908 5928.915415,1803.182255 5961.800615,1799.369352 6006.022322,1801.794277 6030.306018,1797.565509 6068.708751,1771.981106 6096.120987,1768.532904 6138.789801,1765.127521 6169.340654,1752.353465 6230.902432,1700.379212 6299.945197,1624.691484 6333.700587,1581.593804 6354.688529,1551.926363"/>
    <poly id="1147078440" type="water" color="181,209,209" fill="0" layer="-4.00" shape="-3162.548524,3840.988839 -2704.881138,3923.413774 -2686.303933,3932.205074 -2671.851832,3946.616975 -2662.880451,3965.884041 -2652.389927,4004.194458 -2627.529111,4119.489585 -2601.090267,4215.581205 -2564.001489,4334.448187 -2538.061224,4379.963133 -2512.338955,4407.067389 -2465.429361,4445.687981 -2419.217068,4470.662718 -2353.959662,4487.777667 -2112.501390,4516.827720 -2034.511744,4525.220510 -1981.549168,4521.404185 -1946.711424,4518.903371 -1875.198219,4502.527336 -1777.255960,4468.232439 -1725.012917,4445.341393 -1657.302236,4402.443421 -1591.646530,4346.582638 -1478.704172,4220.662814 -1384.211705,4129.782519 -1276.364781,4037.456809 -1008.917907,3859.460391 -848.240611,3748.072883 -754.119482,3699.034194 -515.173208,3606.460400 -436.273873,3580.459233 -350.461795,3562.277785 -136.186962,3524.736076 -13.854506,3517.814899 239.090648,3517.756004 361.968765,3517.438402 574.565587,3488.146576 922.565066,3433.829393 1165.576002,3393.343602 1341.520210,3365.688180 1524.896779,3331.856035 1824.927872,3251.989283 1958.486071,3208.342473 2166.589061,3123.289366 2285.893133,3071.588103 2308.215376,3062.299733 2346.725434,3035.572735 2455.430408,2936.990156 2615.627310,2783.510666 2819.973827,2564.217796 2886.876975,2475.493989 3022.572344,2245.749280 3089.173293,2111.524273 3152.062263,1978.464047 3300.220412,1647.935378 3455.189230,1295.317251 3517.587301,1157.358192 3550.289061,1103.198543 3687.237977,891.570461 3798.456738,729.184718 3878.296281,621.834834 3993.382334,496.444232 4197.392386,313.635940 4275.252275,260.751353 4440.598485,163.284147 4538.289724,116.643521 4662.461664,78.593308 4752.620937,54.594453 4967.618105,20.567376 5076.781935,16.235003 5354.094341,28.060105 5766.142720,70.507081 6195.126356,142.628030 6237.085886,149.681455 6414.545930,166.736724 6524.833220,169.510127 6605.187939,166.051247 6655.243298,153.815907 6717.008473,131.808308 6903.476211,34.230786 6932.109664,23.277746 7025.195881,-12.319419 7252.494659,-33.944412 7562.700920,-44.191234 7822.109881,-58.966285 7902.818147,-53.288012 7996.034554,-36.337500 8121.736192,1.039318 8417.861198,3.939509 8610.598950,-8.584055 8685.505461,-28.016787 8787.165753,-89.841251 8975.490200,-197.200946 9040.250645,-251.850690 9147.530868,-376.081298 9223.724808,-484.047106 9266.982873,-555.804674 9323.462778,-667.804746 9430.395535,-968.744401 9441.188094,-1014.277648 9448.191707,-1043.841110 9485.607040,-1201.759701 9527.058415,-1458.976403 9554.938863,-1741.953221 9596.413789,-2326.912357 9648.819627,-2602.405158 9770.855670,-2933.951359 9925.145344,-3237.219375 9975.157032,-3356.972960 9996.544687,-3476.777907 10023.265784,-3848.492877 10028.100074,-4172.730675"/>
    <poly id="1147078455" type="water" color="181,209,209" fill="0" layer="-4.00" shape="4503.416895,8077.651376 4160.539033,6999.254443 4015.128265,6541.935394 3944.081223,6296.052195 3906.860464,6168.020859 3889.883804,6137.523430 3889.229990,6125.336878 3905.496831,6084.811336 3917.447108,5987.287343 3940.403826,5755.814468 3933.048901,5686.060716 3887.730725,5519.433928 3768.257493,5294.429379 3349.796775,4611.414637 3315.849603,4540.546342 3297.386048,4475.856994 3299.548940,4428.657479 3300.499830,4412.869482 3303.827439,4357.865810 3296.801301,4254.211159 3269.054580,4185.400980 3240.208553,4146.343967 3178.322805,4102.101364 3153.584593,4077.427202 3150.524452,4058.944256 3155.732938,4037.403890 3176.466419,4001.531057 3179.643477,3961.520860 3162.144435,3928.645560 3106.491988,3870.041026 3087.978437,3829.987529 3066.306332,3820.711394 3059.103236,3805.294140 3074.693804,3758.121437 3101.613346,3726.363179 3127.809141,3651.513015 3147.138049,3634.047837 3163.119823,3615.746681 3164.827541,3599.075614 3159.823330,3584.071855 3145.608472,3561.530705 3109.559192,3550.622528 3095.325002,3532.261040 3095.354946,3517.256283 3131.613242,3428.980472 3167.812509,3364.864873 3172.048975,3342.371638 3163.707566,3321.511881 3135.205043,3307.290507 3112.608647,3283.903350 3111.819190,3257.231462 3124.457955,3230.586374 3158.886430,3214.809935 3276.386974,3190.044118 3321.748373,3163.464563 3372.171537,3117.721762 3467.044528,3085.403312 3489.068407,3083.180735 3509.817952,3088.817390 3530.191510,3090.937065 3548.207116,3079.186100 3563.603870,3047.250218 3581.544213,3034.846734 3605.209083,3027.507971 3639.754521,3013.656202"/>
    <poly id="1226364534" type="building" color="255,230,230" fill="1" layer="-1.00" shape="5110.900588,3030.544488 5210.610780,3009.972534 5198.047017,2951.375746 5099.688235,2969.296749 5110.900588,3030.544488"/>
    <poly id="1244769154" type="tourism" color="207,245,201" fill="1" layer="-2.00" shape="3347.546777,628.267281 3337.724611,400.455590 3258.790103,383.966361 3286.949964,247.530885 3363.789852,282.680746 3389.821315,187.363289 3583.387250,228.939199 3591.272407,242.931471 3508.343291,592.420360 3487.910080,608.423642 3347.546777,628.267281"/>
    <poly id="1303846687" type="unknown" color="51,128,255" fill="0" layer="-1.00" shape="1672.155541,905.517576 1636.099083,874.188302"/>
    <poly id="1303846688" type="unknown" color="51,128,255" fill="0" layer="-1.00" shape="1581.902370,817.215039 1565.540637,800.022258"/>
    <poly id="1303847510" type="unknown" color="51,128,255" fill="0" layer="-1.00" shape="1565.540637,800.022258 1545.529922,779.449908"/>
    <poly id="148975766" type="water" color="181,209,209" fill="1" layer="-4.00" shape="8634.025642,25.147240 8723.873155,5.271244 8790.617296,-45.880502 8911.774654,-104.234809 9017.048221,-166.382565 9139.122623,-299.139684 9259.696120,-440.922551 9337.918417,-580.541211 9373.703482,-688.682811 9440.684088,-877.918319 9472.565103,-931.964230 9497.652358,-987.517633 9537.398547,-1175.319399 9571.857272,-1367.644061 9601.863765,-1601.311107 9624.944657,-1780.878050 9636.092536,-2034.887524 9640.722134,-2079.969710 9653.176310,-2240.032282 9703.726456,-2527.769657 9779.160010,-2776.375803 9855.983917,-2969.370916 9966.156376,-3190.091559 10039.834583,-3325.218554 10065.847002,-3457.441942 10098.319125,-3645.336484 9825.995754,-3574.455113 9843.589197,-3565.670372 9857.372068,-3556.307878 9877.896033,-3541.092363 9898.393781,-3518.877534 9907.739868,-3497.859087 9911.153895,-3447.086938 9913.479366,-3434.255238 9909.312718,-3410.922064 9895.115643,-3360.785401 9882.664880,-3308.300751 9879.120660,-3294.309755 9871.447194,-3279.155668 9856.103615,-3245.353330 9830.157684,-3193.495166 9790.479211,-3118.700581 9784.424304,-3107.866413 9698.511988,-2913.342886 9649.005958,-2758.624258 9569.912942,-2563.389039 9531.741271,-2405.638041 9516.092058,-2165.172709 9502.018698,-1954.758055 9498.768131,-1879.275961 9497.431242,-1848.329085 9488.475524,-1640.634479 9455.300367,-1338.583979 9415.490918,-1121.480064 9381.147352,-981.766364 9364.376663,-920.168546 9292.063057,-714.413596 9200.886805,-526.723003 9099.944897,-372.878050 9007.438637,-267.866405 8930.740821,-209.914072 8914.734755,-197.829651 8898.334008,-185.436467 8760.528483,-121.854605 8642.393427,-58.970794 8530.380847,-28.405397 8314.017779,-18.342472 8158.194316,-19.427529 8056.873389,-33.929968 8032.674074,-39.233847 7941.794907,-58.965952 7920.779005,-63.522124 7836.464432,-71.839771 7731.621135,-66.754987 7603.247071,-62.239471 7405.307876,-48.317004 7273.737200,-48.594886 7129.294414,-32.954604 7003.042710,-22.594096 6942.959356,-4.254503 6917.941619,4.859536 6891.682489,26.598536 6767.457199,93.821271 6690.352584,134.052429 6613.289297,154.612730 6491.878746,153.297513 6370.472661,149.848655 6259.776400,138.461194 6221.290816,124.039691 6117.018062,113.196812 6006.874511,93.827892 5914.377407,78.233268 5778.041203,54.034069 5627.237676,39.381260 5481.248796,25.258723 5335.801593,8.484154 5205.845937,0.245080 5067.319280,-2.161698 4982.272217,-0.212625 4960.862775,5.592964 4875.255595,19.228782 4753.800484,39.713655 4679.951777,57.100234 4624.837587,70.798735 4526.348035,106.203240 4426.784100,147.985926 4352.347864,190.870234 4257.548372,252.853750 4227.032390,269.798214 4207.214975,284.110571 4157.378046,329.709841 4087.182290,392.274266 3995.553430,478.170821 3903.359828,578.418888 3867.454635,608.632658 3847.240078,635.549773 3791.109034,714.717997 3730.823020,791.998204 3624.608925,947.726605 3514.966817,1121.471879 3492.571706,1160.879597 3420.378215,1331.703613 3381.644593,1408.651530 3337.192300,1510.389657 3291.199894,1627.151675 3249.434204,1710.097791 3217.502763,1790.067040 3181.791898,1871.908519 3140.019968,1958.249334 3106.592152,2031.448594 3075.454370,2097.885354 3071.258102,2116.663406 3031.006757,2198.120018 2976.719765,2298.711097 2916.771183,2401.170735 2863.656629,2484.846574 2826.494420,2537.748433 2777.205960,2596.265495 2710.133009,2666.014771 2671.850898,2709.902829 2594.557873,2784.519392 2544.910700,2836.644903 2460.416857,2916.886729 2388.429820,2987.378753 2328.579917,3035.724912 2282.773440,3060.812117 2202.160601,3093.714702 2049.626366,3158.796644 1973.558691,3190.204872 1840.737218,3232.028615 1704.895597,3273.835889 1593.657022,3304.059394 1530.475623,3316.331387 1511.184423,3320.429211 1412.822858,3336.016392 1316.737724,3351.608273 1171.857632,3376.504449 1023.207217,3393.123061 862.801243,3422.114842 714.891166,3446.631104 573.029679,3473.028299 445.174937,3494.576671 316.571595,3507.101324 177.028525,3506.082478 -3.351787,3502.354713 -22.249590,3501.190861 -150.850514,3512.600464 -257.141189,3526.297518 -374.033640,3550.125384 -514.037567,3590.429496 -665.027755,3647.631058 -777.060528,3694.767095 -876.993800,3750.174959 -972.785103,3814.624665 -1062.920258,3880.202012 -1168.934614,3951.764989 -1240.485562,3993.339077 -1355.228114,4080.289033 -1410.926734,4136.532876 -1522.671302,4241.899282 -1586.722852,4317.677062 -1637.497556,4374.693351 -1690.502248,4406.904128 -1760.912753,4448.094333 -1844.932379,4480.999667 -1935.721289,4499.617746 -2014.392753,4510.750587 -2073.001704,4508.386583 -2154.658661,4494.712808 -2243.132871,4486.654809 -2329.343890,4479.729043 -2393.602267,4466.839752 -2451.397545,4432.544563 -2496.707116,4398.648333 -2527.262796,4357.636243 -2556.282201,4302.363155 -2580.361886,4232.813191 -2605.540652,4147.858500 -2624.311480,4071.551275 -2637.422623,4006.156865 -2647.542256,3956.546621 -2672.443464,3923.052914 -2698.122825,3878.190964 -2732.315558,3958.614110 -2690.071328,3957.663008 -2669.347877,3995.649358 -2655.474745,4063.300823 -2639.339798,4132.836170 -2616.446830,4223.049892 -2591.229630,4292.977857 -2562.252114,4365.168418 -2509.031319,4423.493467 -2424.823014,4484.142261 -2367.000217,4503.410750 -2304.617269,4512.537179 -2258.102779,4509.991202 -2197.242406,4519.877973 -2126.911800,4527.515596 -2049.411893,4534.425777 -1987.020032,4538.676555 -1968.862079,4537.206364 -1905.311038,4524.176942 -1848.176780,4507.376271 -1766.829023,4481.221958 -1691.900083,4452.435330 -1619.952717,4396.962139 -1557.059108,4331.708664 -1499.075407,4264.566407 -1427.839253,4191.809755 -1336.176176,4110.079718 -1268.756761,4053.846846 -1180.534377,3992.389782 -1077.173098,3929.092637 -980.239954,3862.400185 -877.991293,3785.943356 -795.462541,3738.386549 -681.917899,3684.497317 -568.769816,3643.754793 -446.156091,3597.778337 -348.549650,3575.417458 -270.245283,3563.170790 -144.266577,3537.856762 -30.054510,3530.942204 97.767609,3531.937843 252.439206,3530.729627 373.441227,3532.841084 502.048138,3518.425857 569.393126,3503.152441 719.950483,3479.027680 877.316628,3454.153760 1044.517146,3425.927104 1174.645321,3406.265070 1342.598621,3379.534029 1485.980998,3353.894805 1621.414042,3324.846045 1777.689827,3281.950597 1940.390264,3233.418147 2067.562102,3181.820061 2182.614935,3132.454259 2259.080067,3093.904225 2315.455793,3081.244155 2358.997607,3055.776575 2430.966622,2994.307243 2501.090387,2925.260128 2583.915474,2842.184417 2594.609598,2835.781280 2607.859064,2821.145494 2681.054632,2748.699134 2755.703929,2671.821808 2814.444509,2609.563998 2863.727281,2548.426385 2931.257080,2441.846306 2989.684115,2345.022904 3067.122419,2203.908603 3142.321651,2044.368459 3204.652714,1900.371495 3246.165879,1806.710273 3293.265616,1705.231659 3327.453525,1635.384443 3363.030061,1549.849670 3386.423834,1492.486765 3417.647814,1421.804394 3453.154390,1344.087095 3485.699574,1275.077077 3514.794409,1196.595089 3559.093789,1127.896174 3647.032254,992.553828 3725.955462,866.835561 3802.607994,749.372714 3878.799162,654.742496 3892.630209,640.030907 3903.087868,626.506722 3990.955272,516.818022 4060.098961,454.715710 4129.984426,388.545918 4250.679796,299.136965 4358.677070,227.195392 4499.089210,157.553514 4601.112373,117.478865 4732.422096,78.669396 4885.646946,54.556136 5031.671959,34.940217 5174.244756,38.991645 5306.610641,46.030305 5485.835497,67.440975 5618.574189,74.105657 5774.345242,94.717574 5923.693780,114.189047 5940.551349,118.403660 5952.748711,121.469714 6038.611675,142.977441 6160.361353,160.148059 6392.536381,182.049540 6534.735903,181.218478 6614.158938,183.629151 6705.366176,156.397689 6805.313567,105.499840 6903.752408,53.858249 6924.980758,30.228935 7005.967499,7.477126 7103.196570,-4.724719 7190.964420,-14.679471 7373.658080,-24.068654 7537.041414,-26.730644 7678.136297,-37.699053 7818.471324,-46.423851 7938.348511,-39.025705 8025.661623,-25.415963 8033.627021,-24.171606 8037.384356,-10.253358 8035.074939,5.144707 8055.790947,47.649389 8128.068410,29.017063 8240.026556,23.616984 8353.106140,26.114672 8492.285226,25.661095 8613.988790,18.348082 8634.025642,25.147240"/>