<?xml version="1.0"?>
<!-- generated on 2025-02-16 11:58:54.854232 by $Id: randomTrips.py 20482 2016-04-18 20:49:42Z behrisch $
  options: -n map.net.xml -r map.rou.xml -e 400 -l
-->
<trips>
    <trip id="0" depart="0.00" from="967731074" to="148867675#1" />
    <trip id="1" depart="1.00" from="-967731074" to="770073894#4" />
    <trip id="2" depart="2.00" from="689419688#0" to="148867723#3" />
    <trip id="3" depart="3.00" from="-1119916524" to="706929331#1" />
    <trip id="4" depart="4.00" from="170076285#3" to="967724913#1" />
    <trip id="5" depart="5.00" from="-769729661" to="1120710444" />
    <trip id="6" depart="6.00" from="149396037#2" to="1169859516#0" />
    <trip id="7" depart="7.00" from="148867714#3" to="-769475812#1" />
    <trip id="8" depart="8.00" from="-169419060#4" to="-148867763#3" />
    <trip id="9" depart="9.00" from="-169419060#9" to="-706891969#0" />
    <trip id="10" depart="10.00" from="-967720625" to="148867456#4" />
    <trip id="11" depart="11.00" from="148867769#5" to="149091548#1" />
    <trip id="12" depart="12.00" from="149006193#0" to="148867486#6" />
    <trip id="13" depart="13.00" from="706910753#2" to="-967724913#0" />
    <trip id="14" depart="14.00" from="-967741963" to="148867582" />
    <trip id="15" depart="15.00" from="-148867675#1" to="169421284#2" />
    <trip id="16" depart="16.00" from="566258595#4" to="-148975711" />
    <trip id="17" depart="17.00" from="694453186#0" to="770060445" />
    <trip id="18" depart="18.00" from="-768324292" to="170057973#1" />
    <trip id="19" depart="19.00" from="-149396080#2" to="-566258595#4" />
    <trip id="20" depart="20.00" from="706891969#1" to="-148867768#1" />
    <trip id="21" depart="21.00" from="714031738#0" to="148867721#2" />
    <trip id="22" depart="22.00" from="-689345964#1" to="-770066035#2" />
    <trip id="23" depart="23.00" from="148975756#4" to="-689419686#1" />
    <trip id="24" depart="24.00" from="-706929327" to="-694453204#5" />
    <trip id="25" depart="25.00" from="770073681" to="-148867476#1" />
    <trip id="26" depart="26.00" from="694453189#3" to="-170057065#2" />
    <trip id="27" depart="27.00" from="148867476#0" to="-148867714#2" />
    <trip id="28" depart="28.00" from="169958575" to="149091548#2" />
    <trip id="29" depart="29.00" from="-1119916519#0" to="148867737#2" />
    <trip id="30" depart="30.00" from="-169415722#0" to="768328892" />
    <trip id="31" depart="31.00" from="-169958576#2" to="706912917#2" />
    <trip id="32" depart="32.00" from="-689345959#0" to="-149396080#2" />
    <trip id="33" depart="33.00" from="-148867714#4" to="-149396037#3" />
    <trip id="34" depart="34.00" from="-169406072" to="-148975553#1" />
    <trip id="35" depart="35.00" from="148867486#4" to="-714031738#1" />
    <trip id="36" depart="36.00" from="-148867675#1" to="-148910938#1" />
    <trip id="37" depart="37.00" from="1076624523" to="-148975514#0" />
    <trip id="38" depart="38.00" from="1119916519#0" to="169406196" />
    <trip id="39" depart="39.00" from="-148867765" to="148867456#2" />
    <trip id="40" depart="40.00" from="745465795#0" to="-148867738#4" />
    <trip id="41" depart="41.00" from="-148867486#6" to="149396080#2" />
    <trip id="42" depart="42.00" from="-149091548#2" to="-714031743#4" />
    <trip id="43" depart="43.00" from="-148867708#1" to="714031743#4" />
    <trip id="44" depart="44.00" from="496641219#1" to="149091548#3" />
    <trip id="45" depart="45.00" from="770073681" to="-148867764#2" />
    <trip id="46" depart="46.00" from="-1119916524" to="-148910959" />
    <trip id="47" depart="47.00" from="-170057974#1" to="-706929331#1" />
    <trip id="48" depart="48.00" from="-170052788#5" to="373173682" />
    <trip id="49" depart="49.00" from="-149006204#0" to="-148867676#4" />
    <trip id="50" depart="50.00" from="-148867729#0" to="-169958576#3" />
    <trip id="51" depart="51.00" from="148867457#10" to="-169406375#2" />
    <trip id="52" depart="52.00" from="148867696#1" to="-148910938#1" />
    <trip id="53" depart="53.00" from="1076624536#0" to="148867762#0" />
    <trip id="54" depart="54.00" from="-170057974#0" to="148867732#1" />
    <trip id="55" depart="55.00" from="967735800" to="-149006209" />
    <trip id="56" depart="56.00" from="689345956#0" to="-169405383#12" />
    <trip id="57" depart="57.00" from="148867762#0" to="-148867504#0" />
    <trip id="58" depart="58.00" from="-706912915#0" to="-149091548#3" />
    <trip id="59" depart="59.00" from="-148867654#0" to="706900669#4" />
    <trip id="60" depart="60.00" from="706912917#2" to="-706891967#1" />
    <trip id="61" depart="61.00" from="-148867703#1" to="967533665#1" />
    <trip id="62" depart="62.00" from="-496641224" to="148867778#1" />
    <trip id="63" depart="63.00" from="967738712#0" to="148975756#4" />
    <trip id="64" depart="64.00" from="170057083#5" to="-148975711" />
    <trip id="65" depart="65.00" from="-148867714#4" to="148867508#0" />
    <trip id="66" depart="66.00" from="1247591675" to="148867764#0" />
    <trip id="67" depart="67.00" from="148867695#1" to="-148975558#0" />
    <trip id="68" depart="68.00" from="148910959" to="148867457#3" />
    <trip id="69" depart="69.00" from="-169418673#1" to="148910959" />
    <trip id="70" depart="70.00" from="-148867762#0" to="770073894#4" />
    <trip id="71" depart="71.00" from="706910750#1" to="-170076285#1" />
    <trip id="72" depart="72.00" from="1120710444" to="149006289" />
    <trip id="73" depart="73.00" from="616717664" to="706935910" />
    <trip id="74" depart="74.00" from="-148867695#0" to="149006209" />
    <trip id="75" depart="75.00" from="-148867476#0" to="967726516#0" />
    <trip id="76" depart="76.00" from="373167326#1" to="-967735800" />
    <trip id="77" depart="77.00" from="770069647" to="169405305#6" />
    <trip id="78" depart="78.00" from="-768328893" to="169417720" />
    <trip id="79" depart="79.00" from="-770060445" to="-1219240941#0" />
    <trip id="80" depart="80.00" from="770075029#0" to="-148867675#0" />
    <trip id="81" depart="81.00" from="694453201#0" to="170076285#3" />
    <trip id="82" depart="82.00" from="-769478855#0" to="-169419060#4" />
    <trip id="83" depart="83.00" from="148975549#0" to="1076624526" />
    <trip id="84" depart="84.00" from="689419686#1" to="-169422304#0" />
    <trip id="85" depart="85.00" from="149006235#0" to="-694453189#0" />
    <trip id="86" depart="86.00" from="169416441#2" to="169415722#3" />
    <trip id="87" depart="87.00" from="-148867687#7" to="170057065#1" />
    <trip id="88" depart="88.00" from="148975704" to="1120710444" />
    <trip id="89" depart="89.00" from="148867696#0" to="-148867676#3" />
    <trip id="90" depart="90.00" from="169405383#9" to="149395989" />
    <trip id="91" depart="91.00" from="1219240941#0" to="148867723#3" />
    <trip id="92" depart="92.00" from="148867751#1" to="769729661" />
    <trip id="93" depart="93.00" from="-149006226#2" to="-615911531#3" />
    <trip id="94" depart="94.00" from="149006226#3" to="-148867463#8" />
    <trip id="95" depart="95.00" from="-148867476#5" to="-169961113" />
    <trip id="96" depart="96.00" from="148867474#0" to="-770073681" />
    <trip id="97" depart="97.00" from="149006149" to="148975515#0" />
    <trip id="98" depart="98.00" from="-1318942294" to="-169960201#0" />
    <trip id="99" depart="99.00" from="-967741420" to="-769472625#0" />
    <trip id="100" depart="100.00" from="-967532677#1" to="-149006235#0" />
    <trip id="101" depart="101.00" from="148975752#2" to="967547307#1" />
    <trip id="102" depart="102.00" from="148867762#0" to="566258595#4" />
    <trip id="103" depart="103.00" from="768328890" to="-169405999" />
    <trip id="104" depart="104.00" from="149006226#3" to="770066035#3" />
    <trip id="105" depart="105.00" from="967738711#1" to="148867476#0" />
    <trip id="106" depart="106.00" from="169958164#0" to="149396080#1" />
    <trip id="107" depart="107.00" from="169406375#2" to="967731073" />
    <trip id="108" depart="108.00" from="148975695#0" to="-148867656#0" />
    <trip id="109" depart="109.00" from="-149396037#3" to="706912917#1" />
    <trip id="110" depart="110.00" from="169405383#7" to="-745465795#0" />
    <trip id="111" depart="111.00" from="-169958365" to="-148867663#0" />
    <trip id="112" depart="112.00" from="148867476#0" to="148867770#2" />
    <trip id="113" depart="113.00" from="-149091548#2" to="-148867762#0" />
    <trip id="114" depart="114.00" from="-169419060#7" to="-149091548#0" />
    <trip id="115" depart="115.00" from="169406073" to="770073893#2" />
    <trip id="116" depart="116.00" from="-148867768#1" to="169406375#2" />
    <trip id="117" depart="117.00" from="-689419684#1" to="-615911531#4" />
    <trip id="118" depart="118.00" from="170191218" to="148867744#3" />
    <trip id="119" depart="119.00" from="169421284#4" to="770071031" />
    <trip id="120" depart="120.00" from="-169418673#1" to="148867486#6" />
    <trip id="121" depart="121.00" from="-169415722#2" to="-496641221#0" />
    <trip id="122" depart="122.00" from="-148867762#3" to="967741963" />
    <trip id="123" depart="123.00" from="-148910976#0" to="615911531#3" />
    <trip id="124" depart="124.00" from="-148910959" to="148867708#2" />
    <trip id="125" depart="125.00" from="148867486#4" to="-148867741#2" />
    <trip id="126" depart="126.00" from="-148867654#0" to="148867653" />
    <trip id="127" depart="127.00" from="1219240947#0" to="148867721#1" />
    <trip id="128" depart="128.00" from="-148867768#1" to="-1219240949" />
    <trip id="129" depart="129.00" from="-694453188#6" to="967726516#1" />
    <trip id="130" depart="130.00" from="-967721866#0" to="-706912918" />
    <trip id="131" depart="131.00" from="148910974#2" to="148910938#1" />
    <trip id="132" depart="132.00" from="-169421284#4" to="967719029" />
    <trip id="133" depart="133.00" from="170057065#2" to="-706929329#2" />
    <trip id="134" depart="134.00" from="148867508#0" to="-1120710444" />
    <trip id="135" depart="135.00" from="706891967#0" to="-706910750#4" />
    <trip id="136" depart="136.00" from="169406417#0" to="967720625" />
    <trip id="137" depart="137.00" from="769471816#1" to="148975558#1" />
    <trip id="138" depart="138.00" from="373173682" to="148975756#2" />
    <trip id="139" depart="139.00" from="967738712#1" to="1076624515" />
    <trip id="140" depart="140.00" from="-148867763#10" to="-170057065#1" />
    <trip id="141" depart="141.00" from="706895407#1" to="-706929329#0" />
    <trip id="142" depart="142.00" from="148867463#10" to="-149091548#1" />
    <trip id="143" depart="143.00" from="148867763#11" to="-148867456#4" />
    <trip id="144" depart="144.00" from="148867774#7" to="-1219240953#1" />
    <trip id="145" depart="145.00" from="169958575" to="-149396080#0" />
    <trip id="146" depart="146.00" from="-148975731#3" to="706929331#0" />
    <trip id="147" depart="147.00" from="148975731#2" to="148867530" />
    <trip id="148" depart="148.00" from="-148867737#2" to="-714031738#0" />
    <trip id="149" depart="149.00" from="689345962" to="-616717664" />
    <trip id="150" depart="150.00" from="-148975756#3" to="-967729634" />
    <trip id="151" depart="151.00" from="148867763#10" to="149396080#3" />
    <trip id="152" depart="152.00" from="-148867785#1" to="714031740#2" />
    <trip id="153" depart="153.00" from="-148867663#1" to="1119916519#0" />
    <trip id="154" depart="154.00" from="-148867751#1" to="170057065#0" />
    <trip id="155" depart="155.00" from="714031741#1" to="496641219#1" />
    <trip id="156" depart="156.00" from="-170076285#0" to="169417720" />
    <trip id="157" depart="157.00" from="-149396041" to="148867456#6" />
    <trip id="158" depart="158.00" from="-770060445" to="-769478857#0" />
    <trip id="159" depart="159.00" from="-967510193" to="-169415722#3" />
    <trip id="160" depart="160.00" from="-496641224" to="967720625" />
    <trip id="161" depart="161.00" from="149091548#3" to="149006226#3" />
    <trip id="162" depart="162.00" from="-148975731#2" to="-149006208" />
    <trip id="163" depart="163.00" from="770073681" to="170057974#3" />
    <trip id="164" depart="164.00" from="-148867768#1" to="-1120710444" />
    <trip id="165" depart="165.00" from="169416441#5" to="-1147078434#1" />
    <trip id="166" depart="166.00" from="169960201#0" to="-148867671#0" />
    <trip id="167" depart="167.00" from="-148975731#2" to="-170057065#0" />
    <trip id="168" depart="168.00" from="-768328892" to="148975695#0" />
    <trip id="169" depart="169.00" from="-967729426" to="770060445" />
    <trip id="170" depart="170.00" from="-769471816#4" to="496641221#1" />
    <trip id="171" depart="171.00" from="148867467#1" to="-148867761" />
    <trip id="172" depart="172.00" from="-148867774#9" to="-714031744" />
    <trip id="173" depart="173.00" from="-148867676#4" to="-496641219#0" />
    <trip id="174" depart="174.00" from="648896651#12" to="-1119916519#0" />
    <trip id="175" depart="175.00" from="149396080#2" to="148867729#1" />
    <trip id="176" depart="176.00" from="149006208" to="-148867456#4" />
    <trip id="177" depart="177.00" from="148910952" to="770060445" />
    <trip id="178" depart="178.00" from="169961113" to="-706910753#0" />
    <trip id="179" depart="179.00" from="689419689#0" to="169960202#0" />
    <trip id="180" depart="180.00" from="148867785#2" to="-967543011#1" />
    <trip id="181" depart="181.00" from="148867480#2" to="-170057065#2" />
    <trip id="182" depart="182.00" from="-169418673#1" to="169960108" />
    <trip id="183" depart="183.00" from="-694453188#3" to="149396080#3" />
    <trip id="184" depart="184.00" from="-689419687#1" to="-170052788#11" />
    <trip id="185" depart="185.00" from="-170076285#2" to="1247591675" />
    <trip id="186" depart="186.00" from="170076285#2" to="-169405709#4" />
    <trip id="187" depart="187.00" from="-148867486#4" to="-149006209" />
    <trip id="188" depart="188.00" from="-170057064#2" to="169406417#0" />
    <trip id="189" depart="189.00" from="-169416441#5" to="-148867714#0" />
    <trip id="190" depart="190.00" from="-170057065#1" to="770066035#1" />
    <trip id="191" depart="191.00" from="-148867610" to="-714031741#4" />
    <trip id="192" depart="192.00" from="-770073893#1" to="-170057065#0" />
    <trip id="193" depart="193.00" from="-769478855#2" to="-706910751" />
    <trip id="194" depart="194.00" from="-694453189#1" to="-967517292" />
    <trip id="195" depart="195.00" from="1169859515#0" to="-169421284#0" />
    <trip id="196" depart="196.00" from="148867687#7" to="-148867456#1" />
    <trip id="197" depart="197.00" from="-496641221#1" to="148867785#2" />
    <trip id="198" depart="198.00" from="148975711" to="-148910959" />
    <trip id="199" depart="199.00" from="148867783" to="706895408#0" />
    <trip id="200" depart="200.00" from="-148867759#5" to="-148867744#4" />
    <trip id="201" depart="201.00" from="-148867486#6" to="149006226#3" />
    <trip id="202" depart="202.00" from="-967731075" to="967530088" />
    <trip id="203" depart="203.00" from="-169406196" to="169405383#10" />
    <trip id="204" depart="204.00" from="-148867504#1" to="148867785#2" />
    <trip id="205" depart="205.00" from="-148867472#1" to="-170057083#2" />
    <trip id="206" depart="206.00" from="-496641227" to="-148867759#1" />
    <trip id="207" depart="207.00" from="-967731071" to="-967521127" />
    <trip id="208" depart="208.00" from="170057083#6" to="-148975545#0" />
    <trip id="209" depart="209.00" from="967530088" to="706910750#0" />
    <trip id="210" depart="210.00" from="1169859516#4" to="-714031742" />
    <trip id="211" depart="211.00" from="770071031" to="-148867689#0" />
    <trip id="212" depart="212.00" from="-706910750#0" to="-148975558#1" />
    <trip id="213" depart="213.00" from="-769479509#0" to="-1076624536#0" />
    <trip id="214" depart="214.00" from="148867729#0" to="769479513" />
    <trip id="215" depart="215.00" from="-967734705" to="148867774#10" />
    <trip id="216" depart="216.00" from="-967731074" to="169417720" />
    <trip id="217" depart="217.00" from="148975756#4" to="689419689#1" />
    <trip id="218" depart="218.00" from="-148867759#3" to="-148867721#2" />
    <trip id="219" depart="219.00" from="374222720#2" to="714031741#1" />
    <trip id="220" depart="220.00" from="1318942293#2" to="148867486#6" />
    <trip id="221" depart="221.00" from="-148867486#4" to="169422304#5" />
    <trip id="222" depart="222.00" from="-169406375#1" to="-694453188#9" />
    <trip id="223" depart="223.00" from="169405500#13" to="149006209" />
    <trip id="224" depart="224.00" from="-148867476#0" to="-148867729#2" />
    <trip id="225" depart="225.00" from="148867486#1" to="615911531#4" />
    <trip id="226" depart="226.00" from="148975704" to="170076285#3" />
    <trip id="227" depart="227.00" from="169416441#5" to="-148867654#0" />
    <trip id="228" depart="228.00" from="-768324292" to="169406196" />
    <trip id="229" depart="229.00" from="-770073892#0" to="-148975695#0" />
    <trip id="230" depart="230.00" from="-149006209" to="967721994" />
    <trip id="231" depart="231.00" from="-714031739" to="169958164#0" />
    <trip id="232" depart="232.00" from="149006193#0" to="770060445" />
    <trip id="233" depart="233.00" from="169422304#2" to="-148867663#0" />
    <trip id="234" depart="234.00" from="148867762#0" to="169419106" />
    <trip id="235" depart="235.00" from="148867467#0" to="-148867762#0" />
    <trip id="236" depart="236.00" from="-689419687#1" to="148867508#0" />
    <trip id="237" depart="237.00" from="148867687#5" to="694453204#6" />
    <trip id="238" depart="238.00" from="169958575" to="148867741#3" />
    <trip id="239" depart="239.00" from="-170076285#2" to="-148867525" />
    <trip id="240" depart="240.00" from="-148867654#0" to="967543010#1" />
    <trip id="241" depart="241.00" from="-706935909#1" to="-768328890" />
    <trip id="242" depart="242.00" from="-148867768#0" to="-149396080#1" />
    <trip id="243" depart="243.00" from="-148867486#3" to="-148975558#1" />
    <trip id="244" depart="244.00" from="-148867714#0" to="148867737#2" />
    <trip id="245" depart="245.00" from="-1175285533" to="-1318942293#2" />
    <trip id="246" depart="246.00" from="-714031741#5" to="-1119916519#0" />
    <trip id="247" depart="247.00" from="967521127" to="566258595#6" />
    <trip id="248" depart="248.00" from="-706910753#4" to="-170052788#0" />
    <trip id="249" depart="249.00" from="-706912917#1" to="-170052788#7" />
    <trip id="250" depart="250.00" from="689419686#0" to="148867486#6" />
    <trip id="251" depart="251.00" from="496641219#1" to="-769729661" />
    <trip id="252" depart="252.00" from="-170057083#8" to="169416946#1" />
    <trip id="253" depart="253.00" from="-170057974#5" to="-706912917#2" />
    <trip id="254" depart="254.00" from="169960202#0" to="-170076285#3" />
    <trip id="255" depart="255.00" from="-148867653" to="-148910959" />
    <trip id="256" depart="256.00" from="-148975752#2" to="170057065#0" />
    <trip id="257" depart="257.00" from="149006192#0" to="148975553#1" />
    <trip id="258" depart="258.00" from="1076624525" to="149396037#2" />
    <trip id="259" depart="259.00" from="-148975731#3" to="-148867693#2" />
    <trip id="260" depart="260.00" from="-149396029" to="148910959" />
    <trip id="261" depart="261.00" from="-148975756#4" to="706891293#1" />
    <trip id="262" depart="262.00" from="689345962" to="1119916519#1" />
    <trip id="263" depart="263.00" from="-769475816#7" to="-169418673#1" />
    <trip id="264" depart="264.00" from="148867785#2" to="770060445" />
    <trip id="265" depart="265.00" from="148975711" to="-170076285#3" />
    <trip id="266" depart="266.00" from="170057065#2" to="-149091548#3" />
    <trip id="267" depart="267.00" from="148867463#10" to="-169416737#1" />
    <trip id="268" depart="268.00" from="373167326#1" to="-967736094" />
    <trip id="269" depart="269.00" from="148975704" to="-769728005#0" />
    <trip id="270" depart="270.00" from="169406375#2" to="315821848#0" />
    <trip id="271" depart="271.00" from="169415722#0" to="706910750#3" />
    <trip id="272" depart="272.00" from="-148867732#1" to="694453190" />
    <trip id="273" depart="273.00" from="706900670#1" to="148867486#6" />
    <trip id="274" depart="274.00" from="149006226#2" to="-169419060#4" />
    <trip id="275" depart="275.00" from="-689345959#0" to="714031739" />
    <trip id="276" depart="276.00" from="148867783" to="-714031739" />
    <trip id="277" depart="277.00" from="-148867654#0" to="148867741#1" />
    <trip id="278" depart="278.00" from="967734704#1" to="-148867768#1" />
    <trip id="279" depart="279.00" from="-148867608#2" to="170076285#2" />
    <trip id="280" depart="280.00" from="967727549" to="-149006209" />
    <trip id="281" depart="281.00" from="-148867687#5" to="170191218" />
    <trip id="282" depart="282.00" from="148867785#1" to="-769479508#0" />
    <trip id="283" depart="283.00" from="1119916519#0" to="-967537645" />
    <trip id="284" depart="284.00" from="769479511#0" to="148867486#6" />
    <trip id="285" depart="285.00" from="-148975545#1" to="169406196" />
    <trip id="286" depart="286.00" from="1076624534" to="706912917#0" />
    <trip id="287" depart="287.00" from="148867768#0" to="-148867467#0" />
    <trip id="288" depart="288.00" from="170057083#6" to="-148867653" />
    <trip id="289" depart="289.00" from="149396080#1" to="-169416441#1" />
    <trip id="290" depart="290.00" from="-149091548#1" to="-149006226#0" />
    <trip id="291" depart="291.00" from="-169405500#8" to="-148867714#3" />
    <trip id="292" depart="292.00" from="-967731071" to="-694453204#7" />
    <trip id="293" depart="293.00" from="-148867486#2" to="-148867669" />
    <trip id="294" depart="294.00" from="-148975720" to="148867472#9" />
    <trip id="295" depart="295.00" from="-148867542" to="-169958164#0" />
    <trip id="296" depart="296.00" from="-170076285#0" to="169405383#2" />
    <trip id="297" depart="297.00" from="-169417720" to="148867524" />
    <trip id="298" depart="298.00" from="149006235#0" to="148975514#0" />
    <trip id="299" depart="299.00" from="-149396037#1" to="706910753#0" />
    <trip id="300" depart="300.00" from="-769726506" to="169421285#0" />
    <trip id="301" depart="301.00" from="148867763#6" to="694453186#2" />
    <trip id="302" depart="302.00" from="169422304#2" to="-967510193" />
    <trip id="303" depart="303.00" from="169419060#10" to="148975545#0" />
    <trip id="304" depart="304.00" from="-148867687#2" to="-967729426" />
    <trip id="305" depart="305.00" from="169415722#3" to="496641224" />
    <trip id="306" depart="306.00" from="-706935909#1" to="169406012#1" />
    <trip id="307" depart="307.00" from="169416946#1" to="148867714#4" />
    <trip id="308" depart="308.00" from="769478855#2" to="-149396037#3" />
    <trip id="309" depart="309.00" from="-148867732#0" to="-148867738#4" />
    <trip id="310" depart="310.00" from="148867738#4" to="-1219240947#0" />
    <trip id="311" depart="311.00" from="-1318942294" to="-149006235#0" />
    <trip id="312" depart="312.00" from="148975549#0" to="-148975756#3" />
    <trip id="313" depart="313.00" from="1076624536#0" to="-967521127" />
    <trip id="314" depart="314.00" from="-967741420" to="-169406417#0" />
    <trip id="315" depart="315.00" from="148867737#2" to="-148867764#3" />
    <trip id="316" depart="316.00" from="-689419687#0" to="706910750#4" />
    <trip id="317" depart="317.00" from="-769479512" to="-169415722#1" />
    <trip id="318" depart="318.00" from="148867758#4" to="-967719540" />
    <trip id="319" depart="319.00" from="769473848#1" to="-148975695#0" />
    <trip id="320" depart="320.00" from="-694453204#1" to="1119916519#0" />
    <trip id="321" depart="321.00" from="148867759#1" to="170057064#0" />
    <trip id="322" depart="322.00" from="170057974#5" to="-149006193#0" />
    <trip id="323" depart="323.00" from="-169405383#10" to="769473849#0" />
    <trip id="324" depart="324.00" from="169421285#0" to="148867741#2" />
    <trip id="325" depart="325.00" from="-148867654#0" to="-169405383#9" />
    <trip id="326" depart="326.00" from="148867708#5" to="-169958629#0" />
    <trip id="327" depart="327.00" from="967547864" to="148867463#10" />
    <trip id="328" depart="328.00" from="148867472#5" to="-148867759#5" />
    <trip id="329" depart="329.00" from="-1120710445" to="170076285#0" />
    <trip id="330" depart="330.00" from="-566258595#8" to="-967533712" />
    <trip id="331" depart="331.00" from="149006208" to="-149396037#3" />
    <trip id="332" depart="332.00" from="169406375#2" to="-768328890" />
    <trip id="333" depart="333.00" from="967543011#0" to="149396080#2" />
    <trip id="334" depart="334.00" from="967724912#0" to="694453189#6" />
    <trip id="335" depart="335.00" from="149006195#1" to="769473850" />
    <trip id="336" depart="336.00" from="372806314#0" to="-148867467#1" />
    <trip id="337" depart="337.00" from="-1318942293#1" to="148867770#2" />
    <trip id="338" depart="338.00" from="148867689#0" to="1120710444" />
    <trip id="339" depart="339.00" from="-148975756#4" to="-148910938#0" />
    <trip id="340" depart="340.00" from="967739671#1" to="770073681" />
    <trip id="341" depart="341.00" from="148975515#0" to="170057083#4" />
    <trip id="342" depart="342.00" from="-149006209" to="-1076624536#0" />
    <trip id="343" depart="343.00" from="149396080#0" to="1147078434#1" />
    <trip id="344" depart="344.00" from="714031739" to="148867764#1" />
    <trip id="345" depart="345.00" from="148867708#2" to="-769475812#1" />
    <trip id="346" depart="346.00" from="-496641227" to="-148975711" />
    <trip id="347" depart="347.00" from="148867763#4" to="967738711#1" />
    <trip id="348" depart="348.00" from="967736094" to="1076624536#1" />
    <trip id="349" depart="349.00" from="169958575" to="-148867675#0" />
    <trip id="350" depart="350.00" from="706933074" to="-148867671#1" />
    <trip id="351" depart="351.00" from="-694453188#5" to="769473222" />
    <trip id="352" depart="352.00" from="-372806314#1" to="170057973#1" />
    <trip id="353" depart="353.00" from="149006226#3" to="-770058927#1" />
    <trip id="354" depart="354.00" from="1318942293#2" to="-148867770#2" />
    <trip id="355" depart="355.00" from="-148975514#0" to="148975731#3" />
    <trip id="356" depart="356.00" from="148867762#3" to="770069650#0" />
    <trip id="357" depart="357.00" from="-967738947#1" to="616717664" />
    <trip id="358" depart="358.00" from="-148975731#1" to="148867654#0" />
    <trip id="359" depart="359.00" from="-768324292" to="-148867486#1" />
    <trip id="360" depart="360.00" from="-770060445" to="-496641219#1" />
    <trip id="361" depart="361.00" from="148867763#12" to="-149396037#3" />
    <trip id="362" depart="362.00" from="-169406196" to="373173682" />
    <trip id="363" depart="363.00" from="-149006204#0" to="-706933074" />
    <trip id="364" depart="364.00" from="148975515#0" to="-149006289" />
    <trip id="365" depart="365.00" from="-967529914#0" to="148867770#0" />
    <trip id="366" depart="366.00" from="169419060#1" to="-148867640" />
    <trip id="367" depart="367.00" from="-149396041" to="169405500#5" />
    <trip id="368" depart="368.00" from="148867768#1" to="967721866#0" />
    <trip id="369" depart="369.00" from="-694453188#2" to="-148867486#2" />
    <trip id="370" depart="370.00" from="169419060#7" to="148867731#3" />
    <trip id="371" depart="371.00" from="149091548#0" to="967721189" />
    <trip id="372" depart="372.00" from="-148910938#1" to="967731354" />
    <trip id="373" depart="373.00" from="967547307#1" to="1121941012" />
    <trip id="374" depart="374.00" from="769472624" to="169958628" />
    <trip id="375" depart="375.00" from="1169859514#1" to="714031746#1" />
    <trip id="376" depart="376.00" from="770073681" to="-566258595#2" />
    <trip id="377" depart="377.00" from="-169419060#9" to="-714031739" />
    <trip id="378" depart="378.00" from="169405999" to="-149006209" />
    <trip id="379" depart="379.00" from="-148867678#0" to="148867486#6" />
    <trip id="380" depart="380.00" from="148867693#5" to="148867457#15" />
    <trip id="381" depart="381.00" from="148867472#0" to="-148975756#4" />
    <trip id="382" depart="382.00" from="149006209" to="149091548#1" />
    <trip id="383" depart="383.00" from="149006226#0" to="-149006226#3" />
    <trip id="384" depart="384.00" from="689345963" to="-148867738#4" />
    <trip id="385" depart="385.00" from="1147078434#1" to="-694453191#3" />
    <trip id="386" depart="386.00" from="169418673#1" to="496641227" />
    <trip id="387" depart="387.00" from="-148867751#1" to="694453201#0" />
    <trip id="388" depart="388.00" from="-148867738#4" to="148867752#4" />
    <trip id="389" depart="389.00" from="769473220" to="149006274" />
    <trip id="390" depart="390.00" from="769479980" to="149395912" />
    <trip id="391" depart="391.00" from="148867653" to="148975752#2" />
    <trip id="392" depart="392.00" from="-1120710430#1" to="148867455#3" />
    <trip id="393" depart="393.00" from="-148867476#0" to="-689345963" />
    <trip id="394" depart="394.00" from="-149006208" to="-689419686#5" />
    <trip id="395" depart="395.00" from="-770060445" to="-1120710444" />
    <trip id="396" depart="396.00" from="-1120710444" to="-169416441#6" />
    <trip id="397" depart="397.00" from="-169406031" to="-148975558#1" />
    <trip id="398" depart="398.00" from="768324292" to="169421285#0" />
    <trip id="399" depart="399.00" from="149091548#1" to="148867738#1" />
</trips>
